FoamFile
{
    version     2.0;
    format      ascii;
    class       dictionary;
    location    "constant";
    object      reference;
}

// Generated on 11-Oct-2019
// by serpentToATARI version 11-October-2019
// Data origin: eql_40_res

// physical delayed neutron fraction and spectrum

energyGroups        8;
precursorGroups     6;

lambda          ( 6.975430e-03 3.007280e-02 1.114830e-01 3.289990e-01 1.264350e+00 7.477450e+00 );

zones
{
    vessel
    {
        D               ( 4.712850e-02 3.405460e-02 2.330150e-02 2.019670e-02 2.200760e-02 2.306400e-03 5.328860e-05 0.000000e+00 );
        rem             ( 1.121420e+00 2.446000e-01 5.451000e-01 2.316700e+00 6.550500e+00 9.832707e+01 2.883649e+02 0.000000e+00 );
        scatteringMatrix  (
            ( 9.594680e+00 0.000000e+00 0.000000e+00 0.000000e+00 0.000000e+00 0.000000e+00 0.000000e+00 0.000000e+00 )
            ( 9.284230e-01 1.102970e+01 0.000000e+00 0.000000e+00 0.000000e+00 0.000000e+00 0.000000e+00 0.000000e+00 )
            ( 1.776340e-03 7.732180e-02 1.517590e+01 0.000000e+00 0.000000e+00 0.000000e+00 0.000000e+00 0.000000e+00 )
            ( 8.904180e-06 5.525210e-06 1.231360e-02 1.446050e+01 3.004010e-03 0.000000e+00 0.000000e+00 0.000000e+00 )
            ( 1.433130e-07 3.333540e-08 2.037640e-07 5.277190e-03 1.038460e+01 2.193980e-01 0.000000e+00 0.000000e+00 )
            ( 0.000000e+00 0.000000e+00 0.000000e+00 0.000000e+00 1.862770e-02 8.738930e+00 0.000000e+00 0.000000e+00 )
            ( 0.000000e+00 0.000000e+00 0.000000e+00 0.000000e+00 0.000000e+00 0.000000e+00 7.806060e+00 0.000000e+00 )
            ( 0.000000e+00 0.000000e+00 0.000000e+00 0.000000e+00 0.000000e+00 0.000000e+00 0.000000e+00 0.000000e+00 )
        );
        nuFission       ( 4.548700e-01 1.773210e-01 3.047750e-01 1.698040e+00 3.713960e+00 9.953770e+01 1.555620e+02 0.000000e+00 );
        kappaFission    ( 5.158171e-12 2.032233e-12 3.507334e-12 1.966285e-11 4.301505e-11 1.157013e-09 1.796147e-09 0.000000e+00 );

        chiPrompt       ( 8.530070e-01 1.461520e-01 8.367500e-04 3.684740e-06 0.000000e+00 0.000000e+00 0.000000e+00 0.000000e+00 );
        chiDelayed      ( 3.267890e-01 6.597480e-01 1.327220e-02 1.909730e-04 0.000000e+00 0.000000e+00 0.000000e+00 0.000000e+00 );
        IV              ( 6.739720e-08 2.382760e-07 1.041850e-06 5.435020e-06 3.633560e-05 1.906300e-04 8.729660e-04 0.000000e+00 );
        discFactor      ( 1 1 1 1 1 1 1 1 );
        integralFlux    ( 9.579492e-01 9.236892e-01 6.851708e-01 6.654764e-02 1.154767e-02 5.799048e-04 1.877473e-04 NaN );

        beta            ( 8.664100e-05 7.746470e-04 6.349290e-04 1.720370e-03 7.304160e-04 1.954820e-04 );
    }
    reflector
    {
        D               ( 1.914270e-02 1.000180e-02 8.350970e-03 8.200330e-03 8.351600e-03 8.305720e-03 7.644490e-03 0.000000e+00 );
        rem             ( 1.751100e+00 5.187000e-01 4.104000e-01 4.948000e-01 7.589000e-01 9.765000e-01 1.224140e+01 0.000000e+00 );
        scatteringMatrix  (
            ( 2.018350e+01 0.000000e+00 0.000000e+00 0.000000e+00 0.000000e+00 0.000000e+00 0.000000e+00 0.000000e+00 )
            ( 1.736300e+00 3.496180e+01 0.000000e+00 0.000000e+00 0.000000e+00 0.000000e+00 0.000000e+00 0.000000e+00 )
            ( 1.600020e-03 5.038110e-01 4.010560e+01 0.000000e+00 0.000000e+00 0.000000e+00 0.000000e+00 0.000000e+00 )
            ( 3.489930e-06 4.212550e-07 3.587770e-01 4.080410e+01 6.557150e-04 0.000000e+00 0.000000e+00 0.000000e+00 )
            ( 0.000000e+00 0.000000e+00 0.000000e+00 1.521600e-01 3.967640e+01 2.400760e-01 0.000000e+00 0.000000e+00 )
            ( 0.000000e+00 0.000000e+00 0.000000e+00 0.000000e+00 3.085820e-01 3.969220e+01 9.765970e+00 0.000000e+00 )
            ( 0.000000e+00 0.000000e+00 0.000000e+00 0.000000e+00 0.000000e+00 1.304800e-01 3.193590e+01 0.000000e+00 )
            ( 0.000000e+00 0.000000e+00 0.000000e+00 0.000000e+00 0.000000e+00 0.000000e+00 0.000000e+00 0.000000e+00 )
        );
        nuFission       ( 0.000000e+00 0.000000e+00 0.000000e+00 0.000000e+00 0.000000e+00 0.000000e+00 0.000000e+00 0.000000e+00 );
        kappaFission    ( 0.000000e+00 0.000000e+00 0.000000e+00 0.000000e+00 0.000000e+00 0.000000e+00 0.000000e+00 0.000000e+00 );

        chiPrompt       ( 0.000000e+00 0.000000e+00 0.000000e+00 0.000000e+00 0.000000e+00 0.000000e+00 0.000000e+00 0.000000e+00 );
        chiDelayed      ( 0.000000e+00 0.000000e+00 0.000000e+00 0.000000e+00 0.000000e+00 0.000000e+00 0.000000e+00 0.000000e+00 );
        IV              ( 7.256910e-08 2.829530e-07 1.466990e-06 7.697190e-06 4.423510e-05 2.163290e-04 8.783970e-04 0.000000e+00 );
        discFactor      ( 1 1 1 1 1 1 1 1 );
        integralFlux    ( 3.820417e-02 7.257815e-02 3.119487e-01 9.331562e-01 9.883961e-01 9.994130e-01 9.998130e-01 NaN );

        beta            ( 8.664100e-05 7.746470e-04 6.349290e-04 1.720370e-03 7.304160e-04 1.954820e-04 );
    }
}
