/*--------------------------------*- C++ -*----------------------------------*\
  =========                 |
  \\      /  F ield         | OpenFOAM: The Open Source CFD Toolbox
   \\    /   O peration     | Website:  https://openfoam.org
    \\  /    A nd           | Version:  6
     \\/     M anipulation  |
\*---------------------------------------------------------------------------*/
FoamFile
{
    version     2.0;
    format      ascii;
    class       dictionary;
    object      blockMeshDict;
}

// * * * * * * * * * * * * * * * * * * * * * * * * * * * * * * * * * * * * * //

convertToMeters 1;

// It is better to keep a cubic aspect for a block mesh that will be chinseled
// by snappyHexMesh, even if a bigger portion of the mesh will be discarded.
l  -6.0;
h   6.0;
g   200;

vertices
(
    ($l $l $l)
    ($h $l $l)
    ($h $h $l)
    ($l $h $l)
    ($l $l $h)
    ($h $l $h)
    ($h $h $h)
    ($l $h $h)
);

blocks
(
    hex (0 1 2 3 4 5 6 7) ($g $g $g) simpleGrading (1 1 1)
);

edges
(
);

// No need to define boundaries for a block that completely encompasses the
// geometry of snappyHexMesh. You will have to define boundaries there.
boundary
(
);

mergePatchPairs
(
);

// ************************************************************************* //
