/*--------------------------------*- C++ -*----------------------------------*\
  =========                 |
  \\      /  F ield         | OpenFOAM: The Open Source CFD Toolbox
   \\    /   O peration     | Website:  https://openfoam.org
    \\  /    A nd           | Version:  6
     \\/     M anipulation  |
\*---------------------------------------------------------------------------*/
FoamFile
{
    version     2.0;
    format      ascii;
    class       dictionary;
    object      createBafflesDict;
}
// * * * * * * * * * * * * * * * * * * * * * * * * * * * * * * * * * * * * * //

// Whether to convert internal faces only (so leave boundary faces intact).
// This is only relevant if your face selection type can pick up boundary
// faces.
internalFacesOnly true;

// Example using "baffle" as faceSet and "baffle0" as name of baffle patch
baffles
{
    baffles  // group name
    {
        //- Use predefined faceZone to select faces and orientation.
        type        faceZone;
        zoneName    barrel;

        patches
        {
            master
            {
                name        baffle0;  // patch name
                type        wall;
            }
            slave
            {
                $master;
            }
        }
    }
}


// ************************************************************************* //
