/*
crossSection dictionary
Generated by serpentToFoamXS
22-May-2017
From SERPENT results file: c1u5_res
*/

/*
physical delayed neutron fraction and spectrum
*/

FoamFile
{
    version     2.0;
    format      ascii;
    class       dictionary;
    location    "constant";
    object      reference;
}

energyGroups    6;
precursorGroups 8;

rhoRef          2000;
rhoFieldName    rho;

lambda      ( 1.246670E-02 2.829170E-02 4.252440E-02 1.330420E-01 2.924670E-01 6.664880E-01 1.634780E+00 3.554600E+00 );

zones
{
    vessel
    {
        D               ( 2.800640E-02 1.840210E-02 1.131100E-02 1.447860E-02 1.397500E-02 1.282520E-02 );
        rem             ( 5.703600E+00 3.358700E+00 1.971600E+00 2.462100E+00 2.317800E+00 3.433300E+00 );
        scatteringMatrix    (
            ( 1.084760E+01            0            0            0            0            0 )
            ( 5.233160E+00 1.836660E+01            0            0            0            0 )
            ( 4.018050E-01 3.191380E+00 2.982930E+01            0            0            0 )
            ( 1.098690E-02 2.342180E-03 1.634700E+00 2.174720E+01            0            0 )
            ( 2.532900E-03 2.252590E-04 1.705750E-03 1.902430E+00 2.271730E+01            0 )
            ( 3.783340E-04 2.004050E-05 1.246250E-04 1.368580E-06 1.058850E+00 2.378260E+01 )
        );
        nuFission       ( 3.178061E-01 2.766305E-01 3.703914E-01 6.277296E-01 1.305042E+00 3.526265E+00 );
        kappaFission    ( 3.607215E-12 3.522081E-12 4.932995E-12 8.367220E-12 1.738083E-11 4.696357E-11 );

        chiPrompt       ( 3.538120E-01 5.236420E-01 1.210330E-01 1.354570E-03 1.512260E-04 7.372360E-06 );
        chiDelayed      ( 4.303250E-03 3.877340E-01 5.818480E-01 2.279470E-02 2.891300E-03 4.289350E-04 );
        IV              ( 4.003670E-08 7.398460E-08 2.617480E-07 6.692700E-07 1.558450E-06 4.244620E-06 );
        discFactor      ( 1 1 1 1 1 1 );

        beta            ( 2.331020E-04 1.032620E-03 6.818780E-04 1.377260E-03 2.144930E-03 6.409170E-04 6.058050E-04 1.660160E-04 );
        Sc              2e8;
    }
};
