FoamFile
{
    version     2.0;
    format      ascii;
    class       dictionary;
    location    "constant";
    object      rho;
}

// Generated on 11-Oct-2019
// by serpentToATARI version 11-October-2019
// Data origin: eql_40_res

// physical delayed neutron fraction and spectrum

fieldName          rho;
referenceValue     3.320000e+03;

interpolationMode  linear;
extrapolate        true;

branching
{
    rho2988
    {
        perturbedValue  2.988000e+03;

        zones
        {
            vessel
            {
                D               ( 5.235690e-02 3.785190e-02 2.582130e-02 2.251230e-02 2.446620e-02 2.803040e-03 1.755950e-04 0.000000e+00 );
                rem             ( 1.008330e+00 2.192400e-01 4.951000e-01 2.099200e+00 5.914230e+00 8.808109e+01 2.423525e+02 0.000000e+00 );
                scatteringMatrix  (
                    ( 8.637990e+00 0.000000e+00 0.000000e+00 0.000000e+00 0.000000e+00 0.000000e+00 0.000000e+00 0.000000e+00 )
                    ( 8.345400e-01 9.927560e+00 0.000000e+00 0.000000e+00 0.000000e+00 0.000000e+00 0.000000e+00 0.000000e+00 )
                    ( 1.594070e-03 6.882580e-02 1.370100e+01 0.000000e+00 0.000000e+00 0.000000e+00 0.000000e+00 0.000000e+00 )
                    ( 1.182540e-05 5.006590e-06 1.200720e-02 1.298100e+01 2.625210e-03 0.000000e+00 0.000000e+00 0.000000e+00 )
                    ( 2.679000e-07 0.000000e+00 0.000000e+00 4.653870e-03 9.397470e+00 2.983250e-01 0.000000e+00 0.000000e+00 )
                    ( 0.000000e+00 0.000000e+00 0.000000e+00 0.000000e+00 1.959230e-02 8.830410e+00 9.074610e+00 0.000000e+00 )
                    ( 0.000000e+00 0.000000e+00 0.000000e+00 0.000000e+00 0.000000e+00 0.000000e+00 9.029490e+00 0.000000e+00 )
                    ( 0.000000e+00 0.000000e+00 0.000000e+00 0.000000e+00 0.000000e+00 0.000000e+00 0.000000e+00 0.000000e+00 )
                );
                nuFission       ( 4.099050e-01 1.595880e-01 2.765450e-01 1.545920e+00 3.392400e+00 8.911670e+01 1.308980e+02 0.000000e+00 );
                kappaFission    ( 4.648074e-12 1.828975e-12 3.182497e-12 1.790127e-11 3.928966e-11 1.035828e-09 1.511404e-09 0.000000e+00 );
            }
            reflector
            {
                D               ( 1.914740e-02 1.000620e-02 8.351080e-03 8.198760e-03 8.353030e-03 8.306500e-03 7.660920e-03 0.000000e+00 );
                rem             ( 1.748600e+00 5.165000e-01 4.101000e-01 4.944000e-01 7.598000e-01 9.700000e-01 1.253400e+01 0.000000e+00 );
                scatteringMatrix  (
                    ( 2.019460e+01 0.000000e+00 0.000000e+00 0.000000e+00 0.000000e+00 0.000000e+00 0.000000e+00 0.000000e+00 )
                    ( 1.733570e+00 3.495500e+01 0.000000e+00 0.000000e+00 0.000000e+00 0.000000e+00 0.000000e+00 0.000000e+00 )
                    ( 1.814170e-03 5.015170e-01 4.010540e+01 0.000000e+00 0.000000e+00 0.000000e+00 0.000000e+00 0.000000e+00 )
                    ( 0.000000e+00 7.382010e-07 3.588350e-01 4.080200e+01 7.105400e-04 0.000000e+00 0.000000e+00 0.000000e+00 )
                    ( 0.000000e+00 0.000000e+00 0.000000e+00 1.528360e-01 3.967640e+01 2.360030e-01 0.000000e+00 0.000000e+00 )
                    ( 0.000000e+00 0.000000e+00 0.000000e+00 0.000000e+00 3.073110e-01 3.970030e+01 1.005460e+01 0.000000e+00 )
                    ( 0.000000e+00 0.000000e+00 0.000000e+00 0.000000e+00 0.000000e+00 1.282320e-01 3.162140e+01 0.000000e+00 )
                    ( 0.000000e+00 0.000000e+00 0.000000e+00 0.000000e+00 0.000000e+00 0.000000e+00 0.000000e+00 0.000000e+00 )
                );
                nuFission       ( 0.000000e+00 0.000000e+00 0.000000e+00 0.000000e+00 0.000000e+00 0.000000e+00 0.000000e+00 0.000000e+00 );
                kappaFission    ( 0.000000e+00 0.000000e+00 0.000000e+00 0.000000e+00 0.000000e+00 0.000000e+00 0.000000e+00 0.000000e+00 );
            }
        }
    }
}
