/*--------------------------------*- C++ -*----------------------------------*\
  =========                 |
  \\      /  F ield         | OpenFOAM: The Open Source CFD Toolbox
   \\    /   O peration     | Website:  https://openfoam.org
    \\  /    A nd           | Version:  6
     \\/     M anipulation  |
\*---------------------------------------------------------------------------*/
FoamFile
{
    version     2.0;
    format      ascii;
    class       dictionary;
    location    "constant/region0/neutronTransport";
    object      reactorState;
}
// * * * * * * * * * * * * * * * * * * * * * * * * * * * * * * * * * * * * * //

keff            0.9763979;

normalizationPower 3e+09;


// ************************************************************************* //
