/*--------------------------------*- C++ -*----------------------------------*\
| =========                 |                                                 |
| \\      /  F ield         | OpenFOAM: The Open Source CFD Toolbox           |
|  \\    /   O peration     | Version:  5.x                                   |
|   \\  /    A nd           | Web:      www.OpenFOAM.org                      |
|    \\/     M anipulation  |                                                 |
\*---------------------------------------------------------------------------*/
FoamFile
{
    version         2;
    format          ascii;
    class           dictionary;
    location        "constant";
    object          neutronicsProperties;
}
// * * * * * * * * * * * * * * * * * * * * * * * * * * * * * * * * * * * * * //

spatialKineticsModel    diffusion;

crossSectionsModel      noParametrization;

branches
(
);

fissionProductsModel    staticSimple;

transient               false;

// ************************************************************************* //
