/*--------------------------------*- C++ -*----------------------------------*\
  =========                 |
  \\      /  F ield         | OpenFOAM: The Open Source CFD Toolbox
   \\    /   O peration     | Website:  https://openfoam.org
    \\  /    A nd           | Version:  6
     \\/     M anipulation  |
\*---------------------------------------------------------------------------*/
FoamFile
{
    version     2.0;
    format      ascii;
    class       polyBoundaryMesh;
    location    "0.0002/polyMesh";
    object      boundary;
}
// * * * * * * * * * * * * * * * * * * * * * * * * * * * * * * * * * * * * * //

9
(
    vessel
    {
        type            wall;
        inGroups        
2
(
clearWall
wall
)
;
        nFaces          17406;
        startFace       651476;
    }
    inlet0
    {
        type            patch;
        inGroups        1(inlets);
        nFaces          312;
        startFace       668882;
    }
    inlet1
    {
        type            patch;
        inGroups        1(inlets);
        nFaces          312;
        startFace       669194;
    }
    inlet2
    {
        type            patch;
        inGroups        1(inlets);
        nFaces          312;
        startFace       669506;
    }
    inlet3
    {
        type            patch;
        inGroups        1(inlets);
        nFaces          312;
        startFace       669818;
    }
    outlet0
    {
        type            patch;
        inGroups        1(outlets);
        nFaces          150;
        startFace       670130;
    }
    outlet1
    {
        type            patch;
        inGroups        1(outlets);
        nFaces          150;
        startFace       670280;
    }
    outlet2
    {
        type            patch;
        inGroups        1(outlets);
        nFaces          150;
        startFace       670430;
    }
    outlet3
    {
        type            patch;
        inGroups        1(outlets);
        nFaces          150;
        startFace       670580;
    }
)

// ************************************************************************* //
